&share
 wrf_core = 'ARW',
 max_dom = 2,
 start_date = '1972-03-06_00:00:00', '1972-03-07_00:00:00',
 end_date   = '1972-03-10_18:00:00', '1972-03-07_00:00:00',
 interval_seconds = 21600,
 io_form_geogrid = 2,
/

&geogrid
 parent_id         =   0,   1,
 parent_grid_ratio =   1,   5,
 i_parent_start    =   1,  85,
 j_parent_start    =   1,  55,
 e_we		   = 200, 251,
 e_sn		   = 200, 351,
 geog_data_res = 'default', 'default',
 dx = 30000,
 dy = 30000,
 map_proj  = 'polar',
 ref_lat   =  76.00,
 ref_lon   = -68.00,
 truelat1  =  76.0,
 truelat2  =  0.0,
 stand_lon = -68.0,
 geog_data_path = '/scratch/c7071009/WRF/Build_WRF/WPS_GEOG'
/

&ungrib
 out_format = 'WPS',
 prefix = 'MLFILE',
/

&metgrid
 fg_name = 'SFFILE', 'MLFILE','PRES',
 io_form_metgrid = 2, 
! constants_name  = './SST:2005-08-28_00'
/
