&geogrid
 parent_id         =   1, 1, 2, 3,
 parent_grid_ratio =   1, 3, 5, 5,
 i_parent_start    =   1, 28, 54, 40,
 j_parent_start    =   1, 24, 97, 50,
 e_we              =  211, 178, 101, 136,
 e_sn              =  131, 220, 141, 136,
 dx = 30000,
 dy = 30000,
 map_proj = 'mercator',
 ref_lat   =  -8.0,
 ref_lon   =  -62.0,
 truelat1  =  -8.0,
/

