&share
 wrf_core = 'ARW',
 max_dom = 3,
 start_date = '2010-08-16_12:00:00','2010-08-16_12:00:00','2010-08-16_12:00:00',
 end_date   = '2010-08-18_00:00:00','2010-08-18_00:00:00','2010-08-18_00:00:00',
 interval_seconds = 21600
 io_form_geogrid = 2,
/

&geogrid
 parent_id         = 1,1,2,
 parent_grid_ratio = 1,3,5,
 i_parent_start    = 1,53,165,
 j_parent_start    = 1,83,50,
 e_we          = 201,271,151,
 e_sn          = 201,181,131,
 geog_data_res = 'usgs_lakes+10m','usgs_lakes+5m','usgs_lakes+30s','usgs_lakes+30s',
 dx = 30000,
 dy = 30000,
 map_proj =  'lambert',
 ref_lat   = 30,
 ref_lon   = 87,
 truelat1  = 30,
 truelat2  = 35,
 stand_lon = 87,
 geog_data_path = '/cfs/geo/'
/

&ungrib
 out_format = 'WPS',
 prefix = 'SST',
/

&metgrid
 fg_name = 'FILE','SST',
 constants_name='./TAVGSFC',
 io_form_metgrid = 2,
/

