&geogrid
parent_id = 1,
parent_grid_ratio = 1,
i_parent_start = 1,
j_parent_start = 1,
e_we = 74,
e_sn = 61,
dx = 30000,
dy = 30000,
map_proj = 'lambert',
ref_lat = 34.83,
ref_lon = -81.03,
truelat1 = 30.0,
truelat2 = 60.0,
stand_lon = -98.0,
/

